Version 4
SHEET 1 1992 968
WIRE 96 -48 -112 -48
WIRE 336 -48 96 -48
WIRE 448 -48 336 -48
WIRE 336 -16 336 -48
WIRE -112 32 -112 -48
WIRE 96 64 96 -48
WIRE 688 64 576 64
WIRE 848 64 752 64
WIRE 848 80 848 64
WIRE 1136 80 848 80
WIRE 336 96 336 64
WIRE 448 96 336 96
WIRE 576 96 576 64
WIRE 576 96 448 96
WIRE 448 112 448 96
WIRE 576 112 576 96
WIRE 848 112 848 80
WIRE 336 128 336 96
WIRE -112 160 -112 112
WIRE -112 160 -192 160
WIRE -192 176 -192 160
WIRE 96 176 96 144
WIRE 192 176 96 176
WIRE 272 176 192 176
WIRE 1376 176 1184 176
WIRE 1424 176 1376 176
WIRE 1520 176 1488 176
WIRE 1680 176 1520 176
WIRE 1904 176 1728 176
WIRE 1136 192 1136 80
WIRE 1184 192 1184 176
WIRE 1680 192 1680 176
WIRE 1728 192 1728 176
WIRE 1376 208 1376 176
WIRE 1520 208 1520 176
WIRE -112 224 -112 160
WIRE 96 224 96 176
WIRE 192 224 192 176
WIRE 448 224 448 176
WIRE 448 224 336 224
WIRE 576 224 576 192
WIRE 848 224 848 192
WIRE 1056 224 848 224
WIRE 336 240 336 224
WIRE 848 256 848 224
WIRE 1056 272 1056 224
WIRE 1136 272 1056 272
WIRE 1184 288 1184 272
WIRE 1264 288 1184 288
WIRE 1680 288 1680 272
WIRE 1680 288 1600 288
WIRE 1376 304 1376 272
WIRE 1424 304 1376 304
WIRE 1520 304 1520 272
WIRE 1520 304 1488 304
WIRE 1728 304 1728 272
WIRE 1904 304 1904 256
WIRE 1904 304 1728 304
WIRE -112 352 -112 304
WIRE 96 352 96 304
WIRE 96 352 -112 352
WIRE 192 352 192 288
WIRE 192 352 96 352
WIRE 336 352 336 320
WIRE 336 352 192 352
WIRE 448 352 448 288
WIRE 448 352 336 352
WIRE 576 352 576 288
WIRE 576 352 448 352
WIRE 640 352 576 352
WIRE 1376 368 1376 304
WIRE 1680 368 1376 368
WIRE 1184 400 1184 368
WIRE 1520 400 1520 304
WIRE 1520 400 1184 400
WIRE 1728 400 1728 304
WIRE 96 544 -112 544
WIRE 336 544 96 544
WIRE 448 544 336 544
WIRE 336 576 336 544
WIRE -112 624 -112 544
WIRE 96 656 96 544
WIRE 688 656 576 656
WIRE 848 656 752 656
WIRE 1264 656 1264 288
WIRE 1264 656 848 656
WIRE 336 688 336 656
WIRE 448 688 336 688
WIRE 576 688 576 656
WIRE 576 688 448 688
WIRE 448 704 448 688
WIRE 576 704 576 688
WIRE 848 704 848 656
WIRE 336 720 336 688
WIRE -112 752 -112 704
WIRE -112 752 -192 752
WIRE -192 768 -192 752
WIRE 96 768 96 736
WIRE 192 768 96 768
WIRE 272 768 192 768
WIRE 848 800 848 784
WIRE 1600 800 1600 288
WIRE 1600 800 848 800
WIRE -112 816 -112 752
WIRE 96 816 96 768
WIRE 192 816 192 768
WIRE 448 816 448 768
WIRE 448 816 336 816
WIRE 576 816 576 784
WIRE 336 832 336 816
WIRE 848 848 848 800
WIRE -112 944 -112 896
WIRE 96 944 96 896
WIRE 96 944 -112 944
WIRE 192 944 192 880
WIRE 192 944 96 944
WIRE 336 944 336 912
WIRE 336 944 192 944
WIRE 448 944 448 880
WIRE 448 944 336 944
WIRE 576 944 576 880
WIRE 576 944 448 944
WIRE 640 944 576 944
FLAG -192 176 0
FLAG 848 256 0
FLAG -192 768 0
FLAG 848 848 0
FLAG 1728 400 0
SYMBOL res 80 48 R0
SYMATTR InstName R1
SYMATTR Value 10k
SYMBOL res 80 208 R0
SYMATTR InstName R2
SYMATTR Value 1k
SYMBOL npn 272 128 R0
SYMATTR InstName Q1
SYMATTR Value 2N3904
SYMBOL res 320 224 R0
SYMATTR InstName R3
SYMATTR Value 100
SYMBOL ind 560 96 R0
SYMATTR InstName L1
SYMATTR Value 2000µH
SYMBOL voltage -112 16 R0
WINDOW 123 0 0 Left 0
WINDOW 39 0 0 Left 0
SYMATTR InstName V1
SYMATTR Value 5
SYMBOL voltage -112 208 R0
WINDOW 123 0 0 Left 0
WINDOW 39 0 0 Left 0
SYMATTR InstName V2
SYMATTR Value 5
SYMBOL ind 320 -32 R0
SYMATTR InstName L2
SYMATTR Value 1mH
SYMBOL cap 432 112 R0
SYMATTR InstName C1
SYMATTR Value 10nF
SYMBOL cap 432 224 R0
SYMATTR InstName C2
SYMATTR Value 47nF
SYMBOL cap 560 224 R0
SYMATTR InstName C3
SYMATTR Value 100nF
SYMBOL cap 176 224 R0
SYMATTR InstName C4
SYMATTR Value 0.1µF
SYMBOL cap 752 48 R90
WINDOW 0 0 32 VBottom 2
WINDOW 3 32 32 VTop 2
SYMATTR InstName C5
SYMATTR Value 0.1µF
SYMBOL res 80 640 R0
SYMATTR InstName R5
SYMATTR Value 10k
SYMBOL res 80 800 R0
SYMATTR InstName R6
SYMATTR Value 1k
SYMBOL npn 272 720 R0
SYMATTR InstName Q2
SYMATTR Value 2N3904
SYMBOL res 320 816 R0
SYMATTR InstName R7
SYMATTR Value 100
SYMBOL ind 560 688 R0
SYMATTR InstName L3
SYMATTR Value 2000µH
SYMBOL voltage -112 608 R0
WINDOW 123 0 0 Left 0
WINDOW 39 0 0 Left 0
SYMATTR InstName V3
SYMATTR Value 5
SYMBOL voltage -112 800 R0
WINDOW 123 0 0 Left 0
WINDOW 39 0 0 Left 0
SYMATTR InstName V4
SYMATTR Value 5
SYMBOL ind 320 560 R0
SYMATTR InstName L4
SYMATTR Value 2mH
SYMBOL cap 432 704 R0
SYMATTR InstName C6
SYMATTR Value 10nF
SYMBOL cap 432 816 R0
SYMATTR InstName C7
SYMATTR Value 47nF
SYMBOL cap 560 816 R0
SYMATTR InstName C8
SYMATTR Value 100nF
SYMBOL cap 176 816 R0
SYMATTR InstName C9
SYMATTR Value 0.1µF
SYMBOL cap 752 640 R90
WINDOW 0 0 32 VBottom 2
WINDOW 3 32 32 VTop 2
SYMATTR InstName C10
SYMATTR Value 0.1µF
SYMBOL schottky 1504 208 R0
SYMATTR InstName D1
SYMATTR Value 1N5819
SYMATTR Description Diode
SYMATTR Type diode
SYMBOL schottky 1488 288 R90
WINDOW 0 0 32 VBottom 2
WINDOW 3 32 32 VTop 2
SYMATTR InstName D2
SYMATTR Value 1N5819
SYMATTR Description Diode
SYMATTR Type diode
SYMBOL schottky 1392 272 R180
WINDOW 0 24 64 Left 2
WINDOW 3 24 0 Left 2
SYMATTR InstName D3
SYMATTR Value 1N5819
SYMATTR Description Diode
SYMATTR Type diode
SYMBOL schottky 1424 192 R270
WINDOW 0 32 32 VTop 2
WINDOW 3 0 32 VBottom 2
SYMATTR InstName D4
SYMATTR Value 1N5819
SYMATTR Description Diode
SYMATTR Type diode
SYMBOL ind2 1120 176 R0
SYMATTR InstName L5
SYMATTR Value 10µH
SYMATTR Type ind
SYMBOL ind2 1168 176 R0
SYMATTR InstName L6
SYMATTR Value 10µH
SYMATTR Type ind
SYMBOL ind2 1664 176 R0
SYMATTR InstName L7
SYMATTR Value 10µH
SYMATTR Type ind
SYMBOL ind2 1712 176 R0
SYMATTR InstName L8
SYMATTR Value 10µH
SYMATTR Type ind
SYMBOL ind2 1168 272 R0
SYMATTR InstName L9
SYMATTR Value 10µH
SYMATTR Type ind
SYMBOL ind2 1664 272 R0
SYMATTR InstName L10
SYMATTR Value 10µH
SYMATTR Type ind
SYMBOL res 1888 160 R0
SYMATTR InstName R9
SYMATTR Value 1Meg
TEXT -216 360 Left 2 !.tran 600u
TEXT 904 -160 Left 2 !K1 L5 L6 L9 1
TEXT 912 -128 Left 2 !K2 L7 L8 L10 1
