Version 4
SHEET 1 3624 1044
WIRE -64 -960 -112 -960
WIRE 240 -944 48 -944
WIRE 288 -944 240 -944
WIRE 384 -944 352 -944
WIRE 544 -944 384 -944
WIRE 688 -944 624 -944
WIRE 800 -944 768 -944
WIRE -112 -928 -112 -960
WIRE -64 -928 -64 -960
WIRE 48 -928 48 -944
WIRE 544 -928 544 -944
WIRE 624 -928 624 -944
WIRE 800 -928 800 -944
WIRE 240 -912 240 -944
WIRE 384 -912 384 -944
WIRE 48 -832 48 -848
WIRE 128 -832 48 -832
WIRE 544 -832 544 -848
WIRE 544 -832 464 -832
WIRE 240 -816 240 -848
WIRE 288 -816 240 -816
WIRE 384 -816 384 -848
WIRE 384 -816 352 -816
WIRE 624 -816 624 -848
WIRE 800 -816 800 -864
WIRE 800 -816 624 -816
WIRE -64 -784 -64 -848
WIRE 240 -752 240 -816
WIRE 544 -752 240 -752
WIRE 48 -720 48 -752
WIRE 384 -720 384 -816
WIRE 384 -720 48 -720
WIRE 624 -720 624 -816
WIRE 128 -416 128 -832
WIRE 128 -416 -128 -416
WIRE 464 -320 464 -832
WIRE 96 -48 64 -48
WIRE 336 -48 96 -48
WIRE 848 -48 336 -48
WIRE 992 -48 848 -48
WIRE 848 -32 848 -48
WIRE 336 -16 336 -48
WIRE 96 64 96 -48
WIRE 688 64 576 64
WIRE 800 64 752 64
WIRE 336 96 336 64
WIRE 448 96 336 96
WIRE 576 96 576 64
WIRE 576 96 448 96
WIRE 992 96 992 -48
WIRE 448 112 448 96
WIRE 576 112 576 96
WIRE 336 128 336 96
WIRE 848 160 848 48
WIRE 848 160 800 160
WIRE 944 160 848 160
WIRE 96 176 96 144
WIRE 192 176 96 176
WIRE 272 176 192 176
WIRE 848 176 848 160
WIRE 1056 192 992 192
WIRE 1456 192 1424 192
WIRE 96 224 96 176
WIRE 192 224 192 176
WIRE 448 224 448 176
WIRE 448 224 336 224
WIRE 576 224 576 192
WIRE 992 224 992 192
WIRE 1456 224 1456 192
WIRE 336 240 336 224
WIRE 1456 320 1456 304
WIRE 1552 320 1456 320
WIRE 1696 320 1632 320
WIRE -352 336 -352 304
WIRE 576 336 576 288
WIRE 848 336 848 256
WIRE 848 336 576 336
WIRE 992 336 992 304
WIRE 992 336 848 336
WIRE 96 352 96 304
WIRE 192 352 192 288
WIRE 192 352 96 352
WIRE 336 352 336 320
WIRE 336 352 192 352
WIRE 448 352 448 288
WIRE 448 352 336 352
WIRE 576 352 576 336
WIRE 576 352 448 352
WIRE 1456 352 1456 320
WIRE 96 400 96 352
WIRE 3504 416 3504 368
WIRE 3504 416 3392 416
WIRE -352 448 -352 416
WIRE 3392 448 3392 416
WIRE 1456 480 1456 432
WIRE 2000 512 1968 512
WIRE 2176 512 2000 512
WIRE 1824 528 1824 448
WIRE 3504 528 3504 416
WIRE 96 544 64 544
WIRE 336 544 96 544
WIRE 880 544 336 544
WIRE 1008 544 880 544
WIRE 2272 544 2096 544
WIRE 2000 560 2000 512
WIRE 336 576 336 544
WIRE 1008 592 1008 544
WIRE 1696 592 1696 320
WIRE 1776 592 1696 592
WIRE 3392 592 3392 528
WIRE 3456 592 3392 592
WIRE 2176 624 2176 512
WIRE 3552 624 3504 624
WIRE 2096 640 2096 544
WIRE 2144 640 2096 640
WIRE 3392 640 3392 592
WIRE 3504 640 3504 624
WIRE 96 656 96 544
WIRE 688 656 576 656
WIRE 880 656 880 624
WIRE 960 656 880 656
WIRE 2272 656 2272 544
WIRE 2272 656 2208 656
WIRE 2368 656 2272 656
WIRE 1824 672 1824 624
WIRE 1920 672 1824 672
WIRE 2000 672 2000 640
WIRE 2000 672 1984 672
WIRE 2144 672 2000 672
WIRE 2368 672 2368 656
WIRE 2384 672 2368 672
WIRE 2480 672 2464 672
WIRE 2528 672 2480 672
WIRE 336 688 336 656
WIRE 448 688 336 688
WIRE 576 688 576 656
WIRE 576 688 448 688
WIRE 880 688 880 656
WIRE 448 704 448 688
WIRE 576 704 576 688
WIRE 1008 704 1008 688
WIRE 1072 704 1008 704
WIRE 1472 704 1424 704
WIRE 1824 704 1824 672
WIRE 2000 704 2000 672
WIRE 2176 704 2176 688
WIRE 2480 704 2480 672
WIRE 336 720 336 688
WIRE 1008 736 1008 704
WIRE 3392 736 3392 720
WIRE 3504 736 3504 720
WIRE 1472 752 1472 704
WIRE 96 768 96 736
WIRE 192 768 96 768
WIRE 272 768 192 768
WIRE 96 816 96 768
WIRE 192 816 192 768
WIRE 448 816 448 768
WIRE 448 816 336 816
WIRE 576 816 576 784
WIRE 1824 816 1824 784
WIRE 2000 816 2000 784
WIRE 2480 816 2480 768
WIRE 336 832 336 816
WIRE 1472 864 1472 832
WIRE 1552 864 1472 864
WIRE 1696 864 1696 592
WIRE 1696 864 1632 864
WIRE 1472 896 1472 864
WIRE 96 944 96 896
WIRE 192 944 192 880
WIRE 192 944 96 944
WIRE 336 944 336 912
WIRE 336 944 192 944
WIRE 448 944 448 880
WIRE 448 944 336 944
WIRE 576 944 576 880
WIRE 576 944 448 944
WIRE 880 944 880 768
WIRE 880 944 576 944
WIRE 1008 944 1008 816
WIRE 1008 944 880 944
WIRE 96 992 96 944
WIRE 1472 1024 1472 976
FLAG 624 -720 0
FLAG -64 -784 0
FLAG 464 -320 0
FLAG 1456 480 0
FLAG 1472 1024 0
FLAG 1824 816 0
FLAG 3504 736 0
FLAG -352 448 0
FLAG 96 400 0
FLAG 96 992 0
FLAG -352 304 V+
IOPIN -352 304 In
FLAG 64 -48 V+
IOPIN 64 -48 In
FLAG 64 544 V+
IOPIN 64 544 In
FLAG 1424 192 LO
IOPIN 1424 192 BiDir
FLAG 800 64 LO
IOPIN 800 64 BiDir
FLAG 752 656 IN
IOPIN 752 656 BiDir
FLAG 1424 704 IN
IOPIN 1424 704 BiDir
FLAG 1824 448 V+
IOPIN 1824 448 In
FLAG 2528 672 Out
IOPIN 2528 672 Out
FLAG 2480 816 0
FLAG 3504 368 V+
IOPIN 3504 368 In
FLAG 3392 736 0
FLAG 2000 816 0
FLAG 2176 704 0
FLAG 1968 512 V+
IOPIN 1968 512 In
SYMBOL res 80 48 R0
SYMATTR InstName R1
SYMATTR Value 10k
SYMBOL res 80 208 R0
SYMATTR InstName R2
SYMATTR Value 1k
SYMBOL npn 272 128 R0
SYMATTR InstName Q1
SYMATTR Value 2N3904
SYMBOL res 320 224 R0
SYMATTR InstName R3
SYMATTR Value 100
SYMBOL ind 560 96 R0
SYMATTR InstName L1
SYMATTR Value 47mH
SYMBOL voltage -352 320 R0
WINDOW 123 0 0 Left 0
WINDOW 39 0 0 Left 0
SYMATTR InstName V1
SYMATTR Value 9
SYMBOL cap 432 112 R0
SYMATTR InstName C1
SYMATTR Value 10nF
SYMBOL cap 432 224 R0
SYMATTR InstName C2
SYMATTR Value 47nF
SYMBOL cap 560 224 R0
SYMATTR InstName C3
SYMATTR Value 100pF
SYMBOL cap 176 224 R0
SYMATTR InstName C4
SYMATTR Value 0.1µF
SYMBOL cap 752 48 R90
WINDOW 0 0 32 VBottom 2
WINDOW 3 32 32 VTop 2
SYMATTR InstName C5
SYMATTR Value 0.1µF
SYMBOL res 80 640 R0
SYMATTR InstName R5
SYMATTR Value 10k
SYMBOL res 80 800 R0
SYMATTR InstName R6
SYMATTR Value 1k
SYMBOL npn 272 720 R0
SYMATTR InstName Q2
SYMATTR Value 2N3904
SYMBOL res 320 816 R0
SYMATTR InstName R7
SYMATTR Value 100
SYMBOL ind 560 688 R0
SYMATTR InstName L3
SYMATTR Value 500µH
SYMBOL ind 320 560 R0
SYMATTR InstName L4
SYMATTR Value 10mH
SYMBOL cap 432 704 R0
SYMATTR InstName C6
SYMATTR Value 10nF
SYMBOL cap 432 816 R0
SYMATTR InstName C7
SYMATTR Value 47nF
SYMBOL cap 560 816 R0
SYMATTR InstName C8
SYMATTR Value 100nF
SYMBOL cap 176 816 R0
SYMATTR InstName C9
SYMATTR Value 0.1µF
SYMBOL cap 752 640 R90
WINDOW 0 0 32 VBottom 2
WINDOW 3 32 32 VTop 2
SYMATTR InstName C10
SYMATTR Value 0.1µF
SYMBOL schottky 368 -912 R0
SYMATTR InstName D1
SYMATTR Value 1N5819
SYMATTR Description Diode
SYMATTR Type diode
SYMBOL schottky 352 -832 R90
WINDOW 0 0 32 VBottom 2
WINDOW 3 32 32 VTop 2
SYMATTR InstName D2
SYMATTR Value 1N5819
SYMATTR Description Diode
SYMATTR Type diode
SYMBOL schottky 256 -848 R180
WINDOW 0 24 64 Left 2
WINDOW 3 24 0 Left 2
SYMATTR InstName D3
SYMATTR Value 1N5819
SYMATTR Description Diode
SYMATTR Type diode
SYMBOL schottky 288 -928 R270
WINDOW 0 32 32 VTop 2
WINDOW 3 0 32 VBottom 2
SYMATTR InstName D4
SYMATTR Value 1N5819
SYMATTR Description Diode
SYMATTR Type diode
SYMBOL ind2 -80 -944 R0
SYMATTR InstName L5
SYMATTR Value 220mH
SYMATTR Type ind
SYMBOL ind2 32 -944 R0
SYMATTR InstName L6
SYMATTR Value 220mH
SYMATTR Type ind
SYMBOL ind2 528 -944 R0
SYMATTR InstName L7
SYMATTR Value 220mH
SYMATTR Type ind
SYMBOL ind2 608 -944 R0
SYMATTR InstName L8
SYMATTR Value 220mH
SYMATTR Type ind
SYMBOL ind2 32 -848 R0
SYMATTR InstName L9
SYMATTR Value 220mH
SYMATTR Type ind
SYMBOL ind2 528 -848 R0
SYMATTR InstName L10
SYMATTR Value 220mH
SYMATTR Type ind
SYMBOL njf 944 96 R0
SYMATTR InstName J1
SYMATTR Value J201
SYMBOL njf 960 592 R0
SYMATTR InstName J2
SYMATTR Value J201
SYMBOL res 976 208 R0
SYMATTR InstName R4
SYMATTR Value 3.3k
SYMBOL res 832 160 R0
SYMATTR InstName R8
SYMATTR Value 1Meg
SYMBOL cap 1120 176 R90
WINDOW 0 0 32 VBottom 2
WINDOW 3 32 32 VTop 2
SYMATTR InstName C11
SYMATTR Value 10µ
SYMBOL res 832 -48 R0
SYMATTR InstName R10
SYMATTR Value 1Meg
SYMBOL res 864 528 R0
SYMATTR InstName R11
SYMATTR Value 1Meg
SYMBOL res 864 672 R0
SYMATTR InstName R12
SYMATTR Value 1Meg
SYMBOL res 992 720 R0
SYMATTR InstName R13
SYMATTR Value 3.3k
SYMBOL cap 1136 688 R90
WINDOW 0 0 32 VBottom 2
WINDOW 3 32 32 VTop 2
SYMATTR InstName C12
SYMATTR Value 10µ
SYMBOL res 784 -960 R90
WINDOW 0 0 56 VBottom 2
WINDOW 3 32 56 VTop 2
SYMATTR InstName R9
SYMATTR Value 100
SYMBOL cap 784 -928 R0
SYMATTR InstName C13
SYMATTR Value 0.08µF
SYMBOL njf 1776 528 R0
SYMATTR InstName J3
SYMATTR Value LSK170B
SYMBOL res 1440 208 R0
SYMATTR InstName R14
SYMATTR Value 1k
SYMBOL res 1440 336 R0
SYMATTR InstName R15
SYMATTR Value 5k
SYMBOL res 1648 304 R90
WINDOW 0 0 56 VBottom 2
WINDOW 3 32 56 VTop 2
SYMATTR InstName R16
SYMATTR Value 100k
SYMBOL res 1488 848 R180
WINDOW 0 36 76 Left 2
WINDOW 3 36 40 Left 2
SYMATTR InstName R17
SYMATTR Value 1k
SYMBOL res 1488 992 R180
WINDOW 0 36 76 Left 2
WINDOW 3 36 40 Left 2
SYMATTR InstName R18
SYMATTR Value 5k
SYMBOL res 1536 880 R270
WINDOW 0 32 56 VTop 2
WINDOW 3 0 56 VBottom 2
SYMATTR InstName R19
SYMATTR Value 100k
SYMBOL res 1808 688 R0
SYMATTR InstName R20
SYMATTR Value 8.2k
SYMBOL cap 1984 656 R90
WINDOW 0 0 32 VBottom 2
WINDOW 3 32 32 VTop 2
SYMATTR InstName C14
SYMATTR Value 0.1nF
SYMBOL cap 2464 704 R0
SYMATTR InstName C15
SYMATTR Value 35.8nF
SYMBOL res 2480 656 R90
WINDOW 0 0 56 VBottom 2
WINDOW 3 32 56 VTop 2
SYMATTR InstName R21
SYMATTR Value 1k
SYMBOL njf 3456 528 R0
SYMATTR InstName J4
SYMATTR Value J201
SYMBOL res 3488 624 R0
SYMATTR InstName R22
SYMATTR Value 3.3k
SYMBOL res 3376 624 R0
SYMATTR InstName R23
SYMATTR Value 1Meg
SYMBOL cap 3616 608 R90
WINDOW 0 0 32 VBottom 2
WINDOW 3 32 32 VTop 2
SYMATTR InstName C16
SYMATTR Value 0.1µF
SYMBOL res 3376 432 R0
SYMATTR InstName R24
SYMATTR Value 1Meg
SYMBOL OpAmps\\UniversalOpAmp2 2176 656 R0
SYMATTR InstName U1
SYMBOL res 1984 688 R0
SYMATTR InstName R25
SYMATTR Value 1Meg
SYMBOL res 1984 544 R0
SYMATTR InstName R26
SYMATTR Value 1Meg
SYMBOL ind 320 -32 R0
SYMATTR InstName L2
SYMATTR Value 67mH
TEXT -216 360 Left 2 !.tran 5m
TEXT -64 -1032 Left 2 !K1 L5 L6 L9 1
TEXT -56 -1000 Left 2 !K2 L7 L8 L10 1
