Version 4
SHEET 1 1020 680
WIRE 96 -48 -112 -48
WIRE 336 -48 96 -48
WIRE 448 -48 336 -48
WIRE 336 -16 336 -48
WIRE -112 32 -112 -48
WIRE 96 64 96 -48
WIRE 688 64 576 64
WIRE 848 64 752 64
WIRE 336 96 336 64
WIRE 448 96 336 96
WIRE 576 96 576 64
WIRE 576 96 448 96
WIRE 448 112 448 96
WIRE 576 112 576 96
WIRE 848 112 848 64
WIRE 336 128 336 96
WIRE -112 160 -112 112
WIRE -112 160 -192 160
WIRE -192 176 -192 160
WIRE 96 176 96 144
WIRE 192 176 96 176
WIRE 272 176 192 176
WIRE -112 224 -112 160
WIRE 96 224 96 176
WIRE 192 224 192 176
WIRE 448 224 448 176
WIRE 448 224 336 224
WIRE 576 224 576 192
WIRE 336 240 336 224
WIRE 848 256 848 192
WIRE -112 352 -112 304
WIRE 96 352 96 304
WIRE 96 352 -112 352
WIRE 192 352 192 288
WIRE 192 352 96 352
WIRE 336 352 336 320
WIRE 336 352 192 352
WIRE 448 352 448 288
WIRE 448 352 336 352
WIRE 576 352 576 288
WIRE 576 352 448 352
WIRE 640 352 576 352
FLAG -192 176 0
FLAG 848 256 0
SYMBOL res 80 48 R0
SYMATTR InstName R1
SYMATTR Value 10k
SYMBOL res 80 208 R0
SYMATTR InstName R2
SYMATTR Value 1k
SYMBOL npn 272 128 R0
SYMATTR InstName Q1
SYMATTR Value 2N3904
SYMBOL res 320 224 R0
SYMATTR InstName R3
SYMATTR Value 100
SYMBOL ind 560 96 R0
SYMATTR InstName L1
SYMATTR Value 100µH
SYMBOL voltage -112 16 R0
WINDOW 123 0 0 Left 0
WINDOW 39 0 0 Left 0
SYMATTR InstName V1
SYMATTR Value 5
SYMBOL voltage -112 208 R0
WINDOW 123 0 0 Left 0
WINDOW 39 0 0 Left 0
SYMATTR InstName V2
SYMATTR Value 5
SYMBOL res 832 96 R0
SYMATTR InstName R4
SYMATTR Value 1Meg
SYMBOL ind 320 -32 R0
SYMATTR InstName L2
SYMATTR Value 10µH
SYMBOL cap 432 112 R0
SYMATTR InstName C1
SYMATTR Value 1nF
SYMBOL cap 432 224 R0
SYMATTR InstName C2
SYMATTR Value 4.7nF
SYMBOL cap 560 224 R0
SYMATTR InstName C3
SYMATTR Value 10nF
SYMBOL cap 176 224 R0
SYMATTR InstName C4
SYMATTR Value 0.1µF
SYMBOL cap 752 48 R90
WINDOW 0 0 32 VBottom 2
WINDOW 3 32 32 VTop 2
SYMATTR InstName C5
SYMATTR Value 0.1µF
TEXT -212 362 Left 2 !.tran 100u
