*SRC=1N4739A;DI_1N4739A;Diodes;Zener <=10V; 9.10V  1.00W   Diodes Inc.
*Zener
*SYM=HZEN
.SUBCKT DI_1N4739A  1 2
*        Terminals    A   K
D1 1 2 DF
DZ 3 1 DR
VZ 2 3 8.16
.MODEL DF D ( IS=45.3p RS=0.620 N=1.10
+ CJO=79.4p VJ=0.750 M=0.330 TT=50.1n )
.MODEL DR D ( IS=9.05f RS=0.344 N=1.24 )
.ENDS


